Version 4
SHEET 1 880 680
WIRE -48 64 -144 64
WIRE 144 64 48 64
WIRE -48 80 -128 80
WIRE 128 80 48 80
WIRE -128 160 -128 80
WIRE -48 160 -128 160
WIRE 128 160 128 80
WIRE 128 160 48 160
WIRE -144 176 -144 64
WIRE -48 176 -144 176
WIRE 144 176 144 64
WIRE 144 176 48 176
TEXT 120 48 Left 2 ;U1
TEXT 120 192 Left 2 ;U1
TEXT -144 48 Left 2 ;U1
TEXT -144 192 Left 2 ;U1
RECTANGLE Normal 48 96 -48 48 2
RECTANGLE Normal 48 96 -48 48 2
RECTANGLE Normal 48 192 -48 144 2
