Version 4
SHEET 1 880 680
WIRE 64 -640 -288 -640
WIRE -288 -608 -288 -640
WIRE -160 -592 -224 -592
WIRE -128 -592 -160 -592
WIRE -80 -592 -128 -592
WIRE 64 -592 64 -640
WIRE 64 -592 -32 -592
WIRE 112 -592 64 -592
WIRE 160 -592 112 -592
WIRE 176 -592 160 -592
WIRE -224 -576 -224 -592
WIRE -224 -576 -240 -576
WIRE -288 -512 -288 -544
WIRE -240 -512 -288 -512
WIRE -160 -512 -208 -512
WIRE -128 -512 -160 -512
WIRE -80 -512 -80 -528
WIRE -80 -512 -128 -512
WIRE -32 -512 -32 -528
WIRE 64 -512 32 -512
WIRE 112 -512 112 -528
WIRE 112 -512 64 -512
WIRE 160 -512 112 -512
WIRE 176 -512 160 -512
WIRE -288 -480 -288 -512
WIRE -240 -480 -288 -480
WIRE 64 -480 64 -512
WIRE 64 -480 -208 -480
WIRE -288 -448 -288 -480
SYMBOL circuiTikz\\npn_t -288 -576 M0
SYMATTR InstName Q1
SYMBOL circuiTikz\\ind_coil -96 -608 R0
SYMATTR InstName L1
SYMBOL circuiTikz\\gnd -288 -448 R0
SYMATTR InstName X1
SYMBOL circuiTikz\\ind_coil -16 -512 R180
WINDOW 0 36 64 Left 2
WINDOW 3 36 24 Left 2
SYMATTR InstName L2
SYMBOL circuiTikz\\res_eu 0 -512 R90
WINDOW 0 -14 0 VBottom 2
WINDOW 3 10 0 VTop 2
SYMATTR InstName R1
SYMBOL cap 96 -592 R0
SYMATTR InstName C1
SYMBOL circuiTikz\\arrow_voltage_5 -160 -592 R180
WINDOW 3 16 -69 Left 2
SYMATTR InstName U1
SYMBOL circuiTikz\\arrow_voltage_5 -128 -592 R180
WINDOW 3 16 -69 Left 2
SYMATTR InstName U2
SYMBOL circuiTikz\\arrow_voltage_5 64 -592 R180
WINDOW 3 16 -69 Left 2
SYMATTR InstName U3
SYMBOL circuiTikz\\arrow_voltage_5 160 -592 R180
WINDOW 3 16 -69 Left 2
SYMATTR InstName U4
TEXT -240 -528 Left 2 ;E1
TEXT -240 -464 Left 2 ;E2
RECTANGLE Normal 32 -496 -112 -608 2
CIRCLE Normal -208 -512 -240 -512 2
